Version 4
SHEET 1 880 1840
WIRE 624 208 544 208
WIRE 624 240 544 240
WIRE 624 272 544 272
WIRE 624 304 544 304
WIRE 624 336 544 336
WIRE 624 368 544 368
WIRE 624 400 544 400
WIRE 624 432 544 432
WIRE 624 544 544 544
WIRE 624 576 544 576
WIRE 624 608 544 608
WIRE 624 640 544 640
WIRE 624 672 544 672
WIRE 624 704 544 704
WIRE 624 736 544 736
WIRE 624 768 544 768
WIRE 624 880 544 880
WIRE 624 912 544 912
WIRE 624 944 544 944
WIRE 624 976 544 976
WIRE 624 1008 544 1008
WIRE 624 1040 544 1040
WIRE 624 1072 544 1072
WIRE 624 1104 544 1104
WIRE 624 1216 544 1216
WIRE 624 1248 544 1248
WIRE 624 1280 544 1280
WIRE 624 1312 544 1312
WIRE 624 1344 544 1344
WIRE 624 1376 544 1376
WIRE 624 1408 544 1408
WIRE 624 1440 544 1440
FLAG 432 240 0
FLAG 432 208 +5V
FLAG 432 368 +5V
FLAG 432 576 0
FLAG 432 544 +5V
FLAG 432 704 +5V
FLAG 432 912 0
FLAG 432 880 +5V
FLAG 432 1040 +5V
FLAG 432 1248 0
FLAG 432 1216 +5V
FLAG 432 1376 +5V
FLAG 432 1600 0
FLAG 432 1568 +5V
FLAG 432 1760 0
FLAG 432 1792 0
FLAG 432 1696 0
FLAG 240 1760 0
FLAG 240 1680 +5V
FLAG -496 1648 0
FLAG -400 1616 0
FLAG -304 1584 0
FLAG -208 1552 0
FLAG -112 1520 0
FLAG -496 1568 CS0
FLAG -400 1536 CS1
FLAG -304 1504 CS2
FLAG -208 1472 CS3
FLAG -112 1440 CS4
FLAG 432 272 CS0
FLAG 432 608 CS0
FLAG 432 944 CS0
FLAG 432 1280 CS0
FLAG 432 304 CS1
FLAG 432 640 CS1
FLAG 432 976 CS1
FLAG 432 1312 CS1
FLAG 432 336 CS2
FLAG 432 672 CS2
FLAG 432 1008 CS2
FLAG 432 1344 CS2
FLAG 432 1632 CS3
FLAG 432 1664 CS4
FLAG 544 1568 D_EN0
FLAG 544 1600 D_EN1
FLAG 544 1632 D_EN2
FLAG 544 1664 D_EN3
FLAG 432 400 D_EN0
FLAG 432 736 D_EN1
FLAG 432 1072 D_EN2
FLAG 432 1408 D_EN3
FLAG 432 1728 +5V
FLAG 624 208 CS11
FLAG 624 240 CS12
FLAG 624 272 CS13
FLAG 624 304 CS21
FLAG 624 336 CS22
FLAG 624 368 CS23
FLAG 624 400 CS31
FLAG 624 432 CS32
FLAG 624 544 CS33
FLAG 624 576 CS41
FLAG 624 608 CS42
FLAG 624 640 CS43
FLAG 624 672 CS51
FLAG 624 704 CS52
FLAG 624 736 CS53
FLAG 624 768 CS61
FLAG 624 880 CS62
FLAG 624 912 CS63
FLAG 624 944 CS71
FLAG 624 976 CS72
FLAG 624 1008 CS73
FLAG 624 1040 CS81
FLAG 624 1072 CS82
FLAG 624 1104 CS83
FLAG 624 1408 LDAC
FLAG 624 1440 CLR
FLAG -592 1680 0
FLAG -592 1600 DEN
FLAG 432 432 DEN
FLAG 432 768 DEN
FLAG 432 1104 DEN
FLAG 432 1440 DEN
SYMBOL AutoGenerated/SN74LVC138A 480 320 R0
SYMATTR InstName U1
SYMBOL AutoGenerated/SN74LVC138A 480 656 R0
SYMATTR InstName U2
SYMBOL AutoGenerated/SN74LVC138A 480 992 R0
SYMATTR InstName U3
SYMBOL AutoGenerated/SN74LVC138A 480 1328 R0
SYMATTR InstName U4
SYMBOL AutoGenerated/SN74LVC138A 480 1680 R0
SYMATTR InstName U5
SYMBOL Voltage 240 1664 R0
SYMATTR InstName V1
SYMATTR Value 5
SYMBOL Voltage -496 1552 R0
SYMATTR InstName V2
SYMATTR Value PULSE(0 5 {T/64} {T/64/100} {T/64/100} {T/64} {T/32})
SYMBOL Voltage -400 1520 R0
SYMATTR InstName V3
SYMATTR Value PULSE(0 5 {T/32} {T/64/100} {T/64/100} {T/32} {T/16})
SYMBOL Voltage -304 1488 R0
SYMATTR InstName V4
SYMATTR Value PULSE(0 5 {T/16} {T/64/100} {T/64/100} {T/16} {T/8})
SYMBOL Voltage -208 1456 R0
SYMATTR InstName V5
SYMATTR Value PULSE(0 5 {T/8} {T/64/100} {T/64/100} {T/8} {T/4})
SYMBOL Voltage -112 1424 R0
SYMATTR InstName V6
SYMATTR Value PULSE(0 5 {T/4} {T/64/100} {T/64/100} {T/4} {T/2})
SYMBOL Voltage -592 1584 R0
SYMATTR InstName V7
SYMATTR Value PULSE(0 5 {T/2.0} {T/64/100} {T/64/100} {T/2.0} {T})
TEXT 0 1800 Left 2 !.tran {2*T}
TEXT 0 1760 Left 2 !.param T 100m
